8
c2h4 + agau: Distance = 4.0, Angle = 90.0, Axis = [0, 0, 1]
C        0.00000000       0.00000000       0.66950000
H        0.00000000       0.92893000       1.23239000
H        0.00000000      -0.92893000       1.23239000
C        0.00000000       0.00000000      -0.66950000
H        0.00000000       0.92893000      -1.23239000
H        0.00000000      -0.92893000      -1.23239000
Ag      -0.00000000      -1.72455319       4.00000000
Au       0.00000000       0.94444681       4.00000000
