8
c2h4 + hg2: Distance = 4.0, Angle = 0.0, Axis = [1, 0, 0]
C        0.00000000       0.00000000       0.66950000
H        0.00000000       0.92893000       1.23239000
H        0.00000000      -0.92893000       1.23239000
C        0.00000000       0.00000000      -0.66950000
H        0.00000000       0.92893000      -1.23239000
H        0.00000000      -0.92893000      -1.23239000
Hg      -1.83950000       0.00000000       4.00000000
Hg       1.83950000       0.00000000       4.00000000
