7
ch3f + cu2: Distance = 4.0, Angle = 90.0, Axis = [0, 0, 1]
C       -0.72738622       0.00000000       0.00000000
F        0.65761378       0.00000000       0.00000000
H       -1.24238622      -0.89000000       0.00000000
H       -1.24238622       0.44500000       0.77200000
H       -1.24238622       0.44500000      -0.77200000
Cu      -0.00000000      -1.16250000       4.00000000
Cu       0.00000000       1.16250000       4.00000000
