7
ch3f + zn2: Distance = 4.0, Angle = 90.0, Axis = [0, 0, 1]
C       -0.72738622       0.00000000       0.00000000
F        0.65761378       0.00000000       0.00000000
H       -1.24238622      -0.89000000       0.00000000
H       -1.24238622       0.44500000       0.77200000
H       -1.24238622       0.44500000      -0.77200000
Zn      -0.00000000      -1.91350000       4.00000000
Zn       0.00000000       1.91350000       4.00000000
