7
ch4 + cu2: Distance = 4.0, Angle = 90.0, Axis = [0, 0, 1]
C        0.00000000      -0.00000000      -0.00000000
H        0.00000000      -0.00000000       1.08900000
H        1.02672000      -0.00000000      -0.36300000
H       -0.51336000      -0.88916000      -0.36300000
H       -0.51336000       0.88916000      -0.36300000
Cu      -0.00000000      -1.16250000       4.00000000
Cu       0.00000000       1.16250000       4.00000000
