7
ch4 + cuau: Distance = 4.0, Angle = 0.0, Axis = [1, 0, 0]
C        0.00000000      -0.00000000      -0.00000000
H        0.00000000      -0.00000000       1.08900000
H        1.02672000      -0.00000000      -0.36300000
H       -0.51336000      -0.88916000      -0.36300000
H       -0.51336000       0.88916000      -0.36300000
Cu      -1.86523256       0.00000000       4.00000000
Au       0.60176744       0.00000000       4.00000000
