7
hcooh + ag2: Distance = 4.0, Angle = 90.0, Axis = [0, 0, 1]
C       -0.12166194       0.00000000      -0.42873647
O        1.07833806       0.00000000      -0.42873647
O       -0.87666194       0.00000000       0.75126353
H       -1.62966194       0.00000000       1.51826353
H       -0.12166194       0.00000000      -1.52873647
Ag      -0.00000000      -1.31050000       4.00000000
Ag       0.00000000       1.31050000       4.00000000
